*Heading
** Job name: LLF Model name: Model-1
** Generated by: Abaqus/CAE 2017
*Preprint, echo=NO, model=NO, history=NO, contact=NO
**
** PARTS
**
*Part, name=Part-4
*Node
      1,           5.,          -5.
      2,          -5.,          -5.
      3,           5.,           5.
      4,          -5.,           5.
      5,  0.394536048,  -1.03521073
      6,   1.12119579,  -1.33569753
      7,   1.38999784,  -1.62411237
      8,          1.5,          -2.
      9,   1.38999784,  -2.37588763
     10,   1.12119579,  -2.66430259
     11,  0.394536048,  -2.96478939
     12,           0.,          -3.
     13, -0.394536048,  -2.96478939
     14,  -1.12119579,  -2.66430259
     15,  -1.38999784,  -2.37588763
     16,         -1.5,          -2.
     17,  -1.38999784,  -1.62411237
     18,  -1.12119579,  -1.33569753
     19, -0.394536048,  -1.03521073
     20,           0.,          -1.
** ... 217 like lines cut
*Element, type=CPE3
  1, 171, 139, 127
  2, 175, 148, 139
  3, 148,  88, 139
  4,  98,  69,  92
  5, 105, 104,  35
  6, 109,  21,  98
  7, 142,  83,  76
  8, 102,  71,  89
  9, 168,  53,  52
 10, 219, 170, 174
 11, 179, 174, 144
 12,  81,   7,  74
 13, 141,  81,  74
 14, 126, 122,  97
 15,  82,  23,  75
 16, 153,  82, 143
 17, 149,  77, 148
 18, 120, 107, 116
 19, 112,  13, 100
 20, 100,  67,  90
** ... 384 like lines cut
*Nset, nset=_PickedSet2, internal, generate
   1,  237,    1
*Elset, elset=_PickedSet2, internal, generate
   1,  404,    1
*Nset, nset=LEFT
  2,  4, 58, 59, 60, 61, 62, 63, 64
*Elset, elset=LEFT
  53, 334, 337, 349, 360, 369, 401, 403
*Nset, nset=BOTTOM
  1,  2, 37, 38, 39, 40, 41, 42, 43
*Elset, elset=BOTTOM
  60, 161, 218, 254, 255, 269, 323, 371
*Nset, nset=RIGHT
  1,  3, 44, 45, 46, 47, 48, 49, 50
*Elset, elset=RIGHT
  39,  46, 372, 377, 385, 389, 395, 399
*Nset, nset=TOP
  3,  4, 51, 52, 53, 54, 55, 56, 57
*Elset, elset=TOP
   9,  46,  53,  56, 221, 266, 267, 373
*Nset, nset=CIRCLE
 21, 22, 23, 24, 25, 26, 27, 28, 29, 30, 31, 32, 33, 34, 35, 36
 69, 70, 71, 72
*Elset, elset=CIRCLE
  32,  34,  81,  85,  87,  93,  95, 101, 102, 104, 108, 114, 115, 121, 126, 127
 134, 137, 139, 145
** Section: Section-1
*Solid Section, elset=_PickedSet2, material=Material-1
,
*End Part
**  
**
** ASSEMBLY
**
*Assembly, name=Assembly
**  
*Instance, name=Part-4-3, part=Part-4
*End Instance
**  
*Nset, nset=Set-3, instance=Part-4-3
  3,  4, 51, 52, 53, 54, 55, 56, 57
*Elset, elset=Set-3, instance=Part-4-3
   9,  46,  53,  56, 221, 266, 267, 373
*Nset, nset=Set-4, instance=Part-4-3
  1,  3, 44, 45, 46, 47, 48, 49, 50
*Elset, elset=Set-4, instance=Part-4-3
  39,  46, 372, 377, 385, 389, 395, 399
*Nset, nset=Set-5, instance=Part-4-3
  3,  4, 51, 52, 53, 54, 55, 56, 57
*Elset, elset=Set-5, instance=Part-4-3
   9,  46,  53,  56, 221, 266, 267, 373
*Nset, nset=_PickedSet44, internal, instance=Part-4-3
  2,  4, 58, 59, 60, 61, 62, 63, 64
*Elset, elset=_PickedSet44, internal, instance=Part-4-3
  53, 334, 337, 349, 360, 369, 401, 403
*Nset, nset=_PickedSet45, internal, instance=Part-4-3
  1,  2, 37, 38, 39, 40, 41, 42, 43
*Elset, elset=_PickedSet45, internal, instance=Part-4-3
  60, 161, 218, 254, 255, 269, 323, 371
*End Assembly
** 
** MATERIALS
** 
*Material, name=Material-1
*Elastic
80., 0.25
*Plastic
2.,  0.
6., 0.4
8., 0.8
** 
** BOUNDARY CONDITIONS
** 
** Name: BC-1 Type: Displacement/Rotation
*Boundary
_PickedSet44, 1, 1
** Name: BC-2 Type: Displacement/Rotation
*Boundary
_PickedSet45, 2, 2
** ----------------------------------------------------------------
** 
** STEP: Step-1
** 
*Step, name=Step-1, nlgeom=NO
*Static, direct
0.25, 1., 
** 
** BOUNDARY CONDITIONS
** 
** Name: BC-3 Type: Displacement/Rotation
*Boundary
Set-4, 1, 1, 1.
** Name: BC-4 Type: Displacement/Rotation
*Boundary
Set-5, 2, 2
** 
** OUTPUT REQUESTS
** 
*Restart, write, frequency=0
** 
** FIELD OUTPUT: F-Output-1
** 
*Output, field
*Node Output
CF, RF, U
*Element Output, directions=YES
E, EE, PE, PEEQ, PEMAG, S
*Contact Output
CDISP, CSTRESS
** 
** HISTORY OUTPUT: H-Output-1
** 
*Output, history, variable=PRESELECT
*End Step
** ----------------------------------------------------------------
** 
** STEP: Step-2
** 
*Step, name=Step-2, nlgeom=NO
*Static, direct
0.25, 1., 
** 
** BOUNDARY CONDITIONS
** 
** Name: BC-3 Type: Displacement/Rotation
*Boundary
Set-4, 1, 1, 1.
** Name: BC-4 Type: Displacement/Rotation
*Boundary
Set-5, 2, 2, 1.
** 
** OUTPUT REQUESTS
** 
*Restart, write, frequency=0
** 
** FIELD OUTPUT: F-Output-1
** 
*Output, field
*Node Output
CF, RF, U
*Element Output, directions=YES
E, EE, PE, PEEQ, PEMAG, S
*Contact Output
CDISP, CSTRESS
** 
** HISTORY OUTPUT: H-Output-1
** 
*Output, history, variable=PRESELECT
*End Step
** ----------------------------------------------------------------
** 
** STEP: Step-3
** 
*Step, name=Step-3, nlgeom=NO
*Static, direct
0.25, 1., 
** 
** BOUNDARY CONDITIONS
** 
** Name: BC-3 Type: Displacement/Rotation
*Boundary
Set-4, 1, 1
** Name: BC-4 Type: Displacement/Rotation
*Boundary
Set-5, 2, 2, 1.
** 
** OUTPUT REQUESTS
** 
*Restart, write, frequency=0
** 
** FIELD OUTPUT: F-Output-1
** 
*Output, field
*Node Output
CF, RF, U
*Element Output, directions=YES
E, EE, PE, PEEQ, PEMAG, S
*Contact Output
CDISP, CSTRESS
** 
** HISTORY OUTPUT: H-Output-1
** 
*Output, history, variable=PRESELECT
*End Step
** ----------------------------------------------------------------
** 
** STEP: Step-4
** 
*Step, name=Step-4, nlgeom=NO
*Static, direct
0.25, 1., 
** 
** BOUNDARY CONDITIONS
** 
** Name: BC-3 Type: Displacement/Rotation
*Boundary
Set-4, 1, 1, -1.
** Name: BC-4 Type: Displacement/Rotation
*Boundary
Set-5, 2, 2, 1.
** 
** OUTPUT REQUESTS
** 
*Restart, write, frequency=0
** 
** FIELD OUTPUT: F-Output-1
** 
*Output, field
*Node Output
CF, RF, U
*Element Output, directions=YES
E, EE, PE, PEEQ, PEMAG, S
*Contact Output
CDISP, CSTRESS
** 
** HISTORY OUTPUT: H-Output-1
** 
*Output, history, variable=PRESELECT
*End Step
** ----------------------------------------------------------------
** 
** STEP: Step-5
** 
*Step, name=Step-5, nlgeom=NO
*Static, direct
0.25, 1., 
** 
** BOUNDARY CONDITIONS
** 
** Name: BC-3 Type: Displacement/Rotation
*Boundary
Set-4, 1, 1, -1.
** Name: BC-4 Type: Displacement/Rotation
*Boundary
Set-5, 2, 2
** 
** OUTPUT REQUESTS
** 
*Restart, write, frequency=0
** 
** FIELD OUTPUT: F-Output-1
** 
*Output, field
*Node Output
CF, RF, U
*Element Output, directions=YES
E, EE, PE, PEEQ, PEMAG, S
*Contact Output
CDISP, CSTRESS
** 
** HISTORY OUTPUT: H-Output-1
** 
*Output, history, variable=PRESELECT
*End Step
** ----------------------------------------------------------------
** 
** STEP: Step-6
** 
*Step, name=Step-6, nlgeom=NO
*Static, direct
0.25, 1., 
** 
** BOUNDARY CONDITIONS
** 
** Name: BC-3 Type: Displacement/Rotation
*Boundary
Set-4, 1, 1, -1.
** Name: BC-4 Type: Displacement/Rotation
*Boundary
Set-5, 2, 2, -1.
** 
** OUTPUT REQUESTS
** 
*Restart, write, frequency=0
** 
** FIELD OUTPUT: F-Output-1
** 
*Output, field
*Node Output
CF, RF, U
*Element Output, directions=YES
E, EE, PE, PEEQ, PEMAG, S
*Contact Output
CDISP, CSTRESS
** 
** HISTORY OUTPUT: H-Output-1
** 
*Output, history, variable=PRESELECT
*End Step
** ----------------------------------------------------------------
** 
** STEP: Step-7
** 
*Step, name=Step-7, nlgeom=NO
*Static, direct
0.25, 1., 
** 
** BOUNDARY CONDITIONS
** 
** Name: BC-3 Type: Displacement/Rotation
*Boundary
Set-4, 1, 1
** Name: BC-4 Type: Displacement/Rotation
*Boundary
Set-5, 2, 2, -1.
** 
** OUTPUT REQUESTS
** 
*Restart, write, frequency=0
** 
** FIELD OUTPUT: F-Output-1
** 
*Output, field
*Node Output
CF, RF, U
*Element Output, directions=YES
E, EE, PE, PEEQ, PEMAG, S
*Contact Output
CDISP, CSTRESS
** 
** HISTORY OUTPUT: H-Output-1
** 
*Output, history, variable=PRESELECT
*End Step
** ----------------------------------------------------------------
** 
** STEP: Step-8
** 
*Step, name=Step-8, nlgeom=NO
*Static, direct
0.25, 1., 
** 
** BOUNDARY CONDITIONS
** 
** Name: BC-3 Type: Displacement/Rotation
*Boundary
Set-4, 1, 1, 1.
** 
** OUTPUT REQUESTS
** 
*Restart, write, frequency=0
** 
** FIELD OUTPUT: F-Output-1
** 
*Output, field
*Node Output
CF, RF, U
*Element Output, directions=YES
E, EE, PE, PEEQ, PEMAG, S
*Contact Output
CDISP, CSTRESS
** 
** HISTORY OUTPUT: H-Output-1
** 
*Output, history, variable=PRESELECT
*End Step
** ----------------------------------------------------------------
** 
** STEP: Step-9
** 
*Step, name=Step-9, nlgeom=NO
*Static, direct
0.25, 1., 
** 
** BOUNDARY CONDITIONS
** 
** Name: BC-3 Type: Displacement/Rotation
*Boundary
Set-4, 1, 1, 1.
** Name: BC-4 Type: Displacement/Rotation
*Boundary
Set-5, 2, 2
** 
** OUTPUT REQUESTS
** 
*Restart, write, frequency=0
** 
** FIELD OUTPUT: F-Output-1
** 
*Output, field
*Node Output
CF, RF, U
*Element Output, directions=YES
E, EE, PE, PEEQ, PEMAG, S
*Contact Output
CDISP, CSTRESS
** 
** HISTORY OUTPUT: H-Output-1
** 
*Output, history, variable=PRESELECT
*End Step
** ----------------------------------------------------------------
** 
** STEP: Step-10
** 
*Step, name=Step-10, nlgeom=NO
*Static, direct
0.25, 1., 
** 
** BOUNDARY CONDITIONS
** 
** Name: BC-3 Type: Displacement/Rotation
*Boundary
Set-4, 1, 1
** 
** OUTPUT REQUESTS
** 
*Restart, write, frequency=0
** 
** FIELD OUTPUT: F-Output-1
** 
*Output, field
*Node Output
CF, RF, U
*Element Output, directions=YES
E, EE, PE, PEEQ, PEMAG, S
*Contact Output
CDISP, CSTRESS
** 
** HISTORY OUTPUT: H-Output-1
** 
*Output, history, variable=PRESELECT
*End Step
