*Heading
** Job name: LLF Model name: Model-1
** Generated by: Abaqus/CAE 2017
*Preprint, echo=NO, model=NO, history=NO, contact=NO
**
** PARTS
**
*Part, name=Part-3
*Node
      1,  0.403229922, -0.961188138
      2, -0.323072374,  -1.26253796
      3, -0.717084169,  -1.24866962
      4,  -1.06066012,  -1.06066012
      5,  -1.24866962, -0.717084169
      6,  -1.26253796, -0.323072374
      7, -0.961188138,  0.403229922
      8, -0.707106769,  0.707106769
      9, -0.403229922,  0.961188138
     10,  0.323072374,   1.26253796
     11,  0.717084169,   1.24866962
     12,   1.06066012,   1.06066012
     13,   1.24866962,  0.717084169
     14,   1.26253796,  0.323072374
     15,  0.961188138, -0.403229922
     16,  0.707106769, -0.707106769
     17,           5.,          -5.
     18,          -5.,          -5.
     19,           5.,           5.
     20,          -5.,           5.
** ... 206 like lines cut
*Element, type=CPE3
  1,  77,  76,  15
  2,  71,  65,  14
  3, 118, 100,  98
  4,  98,  65,  93
  5,  78,   1,  73
  6,  73,  21,  70
  7, 148, 116, 122
  8, 125, 119,  99
  9, 117,  99,  97
 10,  97,  68,  94
 11,  72,  68,   6
 12,  74,  72,  22
 13,  83,  79,  82
 14,  80,   9,  75
 15,  75,  23,  69
 16, 147, 115, 121
 17, 126, 100, 118
 18,  76,  71,  24
 19, 112, 108,  88
 20, 137, 135, 111
** ... 372 like lines cut
*Nset, nset=_PickedSet7, internal, generate
   1,  226,    1
*Elset, elset=_PickedSet7, internal, generate
   1,  392,    1
*Nset, nset=BOTTOM
 17, 18, 25, 26, 27, 28, 29, 30, 31, 32, 33
*Elset, elset=BOTTOM
  25,  52, 283, 293, 301, 311, 339, 341, 349, 362
*Nset, nset=LEFT
 18, 20, 52, 53, 54, 55, 56, 57, 58, 59, 60
*Elset, elset=LEFT
  43,  44,  52, 287, 300, 325, 333, 335, 351, 355
*Nset, nset=TOP
 19, 20, 43, 44, 45, 46, 47, 48, 49, 50, 51
*Elset, elset=TOP
  34,  43, 279, 295, 307, 343, 345, 347, 360, 375
*Nset, nset=RIGHT
 17, 19, 34, 35, 36, 37, 38, 39, 40, 41, 42
*Elset, elset=RIGHT
  25,  26,  35, 285, 298, 303, 327, 337, 353, 357
*Nset, nset=CIRCLE
  1,  2,  3,  4,  5,  6,  7,  8,  9, 10, 11, 12, 13, 14, 15, 16
 21, 22, 23, 24
*Elset, elset=CIRCLE
 24, 61, 63, 65, 67, 69, 70, 71, 73, 75, 76, 78, 80, 81, 83, 86
 87, 90, 91, 97
** Section: Section-1
*Solid Section, elset=_PickedSet7, material=Material-1
,
*End Part
**  
**
** ASSEMBLY
**
*Assembly, name=Assembly
**  
*Instance, name=Part-3-3, part=Part-3
*End Instance
**  
*Nset, nset=_PickedSet28, internal, instance=Part-3-3
 18, 20, 52, 53, 54, 55, 56, 57, 58, 59, 60
*Elset, elset=_PickedSet28, internal, instance=Part-3-3
  43,  44,  52, 287, 300, 325, 333, 335, 351, 355
*Nset, nset=_PickedSet29, internal, instance=Part-3-3
 17, 18, 25, 26, 27, 28, 29, 30, 31, 32, 33
*Elset, elset=_PickedSet29, internal, instance=Part-3-3
  25,  52, 283, 293, 301, 311, 339, 341, 349, 362
*Nset, nset=_PickedSet30, internal, instance=Part-3-3
 17, 19, 34, 35, 36, 37, 38, 39, 40, 41, 42
*Elset, elset=_PickedSet30, internal, instance=Part-3-3
  25,  26,  35, 285, 298, 303, 327, 337, 353, 357
*Nset, nset=_PickedSet31, internal, instance=Part-3-3
 19, 20, 43, 44, 45, 46, 47, 48, 49, 50, 51
*Elset, elset=_PickedSet31, internal, instance=Part-3-3
  34,  43, 279, 295, 307, 343, 345, 347, 360, 375
*End Assembly
** 
** MATERIALS
** 
*Material, name=Material-1
*Elastic
80., 0.25
*Plastic, hardening=KINEMATIC
 6.,0.
12.,2.
** ----------------------------------------------------------------
** 
** STEP: Step-1
** 
*Step, name=Step-1, nlgeom=NO
*Static, direct
0.25, 1., 
** 
** BOUNDARY CONDITIONS
** 
** Name: BC-1 Type: Displacement/Rotation
*Boundary
_PickedSet28, 1, 1
** Name: BC-2 Type: Displacement/Rotation
*Boundary
_PickedSet29, 2, 2
** Name: BC-3 Type: Displacement/Rotation
*Boundary
_PickedSet30, 1, 1, 1.
** Name: BC-4 Type: Displacement/Rotation
*Boundary
_PickedSet31, 2, 2
** 
** OUTPUT REQUESTS
** 
*Restart, write, frequency=0
** 
** FIELD OUTPUT: F-Output-1
** 
*Output, field
*Node Output
CF, RF, U
*Element Output, directions=YES
E, EE, PE, PEEQ, PEMAG, S
*Contact Output
CDISP, CSTRESS
** 
** HISTORY OUTPUT: H-Output-1
** 
*Output, history, variable=PRESELECT
*End Step
** ----------------------------------------------------------------
** 
** STEP: Step-2
** 
*Step, name=Step-2, nlgeom=NO
*Static, direct
0.25, 1., 
** 
** BOUNDARY CONDITIONS
** 
** Name: BC-4 Type: Displacement/Rotation
*Boundary
_PickedSet31, 2, 2, 1.
** 
** OUTPUT REQUESTS
** 
*Restart, write, frequency=0
** 
** FIELD OUTPUT: F-Output-1
** 
*Output, field
*Node Output
CF, RF, U
*Element Output, directions=YES
E, EE, PE, PEEQ, PEMAG, S
*Contact Output
CDISP, CSTRESS
** 
** HISTORY OUTPUT: H-Output-1
** 
*Output, history, variable=PRESELECT
*End Step
** ----------------------------------------------------------------
** 
** STEP: Step-3
** 
*Step, name=Step-3, nlgeom=NO
*Static, direct
0.25, 1., 
** 
** BOUNDARY CONDITIONS
** 
** Name: BC-3 Type: Displacement/Rotation
*Boundary
_PickedSet30, 1, 1
** 
** OUTPUT REQUESTS
** 
*Restart, write, frequency=0
** 
** FIELD OUTPUT: F-Output-1
** 
*Output, field
*Node Output
CF, RF, U
*Element Output, directions=YES
E, EE, PE, PEEQ, PEMAG, S
*Contact Output
CDISP, CSTRESS
** 
** HISTORY OUTPUT: H-Output-1
** 
*Output, history, variable=PRESELECT
*End Step
** ----------------------------------------------------------------
** 
** STEP: Step-4
** 
*Step, name=Step-4, nlgeom=NO
*Static, direct
0.25, 1., 
** 
** BOUNDARY CONDITIONS
** 
** Name: BC-3 Type: Displacement/Rotation
*Boundary
_PickedSet30, 1, 1, -1.
** 
** OUTPUT REQUESTS
** 
*Restart, write, frequency=0
** 
** FIELD OUTPUT: F-Output-1
** 
*Output, field
*Node Output
CF, RF, U
*Element Output, directions=YES
E, EE, PE, PEEQ, PEMAG, S
*Contact Output
CDISP, CSTRESS
** 
** HISTORY OUTPUT: H-Output-1
** 
*Output, history, variable=PRESELECT
*End Step
** ----------------------------------------------------------------
** 
** STEP: Step-5
** 
*Step, name=Step-5, nlgeom=NO
*Static, direct
0.25, 1., 
** 
** BOUNDARY CONDITIONS
** 
** Name: BC-3 Type: Displacement/Rotation
*Boundary
_PickedSet30, 1, 1, -1.
** Name: BC-4 Type: Displacement/Rotation
*Boundary
_PickedSet31, 2, 2
** 
** OUTPUT REQUESTS
** 
*Restart, write, frequency=0
** 
** FIELD OUTPUT: F-Output-1
** 
*Output, field
*Node Output
CF, RF, U
*Element Output, directions=YES
E, EE, PE, PEEQ, PEMAG, S
*Contact Output
CDISP, CSTRESS
** 
** HISTORY OUTPUT: H-Output-1
** 
*Output, history, variable=PRESELECT
*End Step
** ----------------------------------------------------------------
** 
** STEP: Step-6
** 
*Step, name=Step-6, nlgeom=NO
*Static, direct
0.25, 1., 
** 
** BOUNDARY CONDITIONS
** 
** Name: BC-4 Type: Displacement/Rotation
*Boundary
_PickedSet31, 2, 2, -1.
** 
** OUTPUT REQUESTS
** 
*Restart, write, frequency=0
** 
** FIELD OUTPUT: F-Output-1
** 
*Output, field
*Node Output
CF, RF, U
*Element Output, directions=YES
E, EE, PE, PEEQ, PEMAG, S
*Contact Output
CDISP, CSTRESS
** 
** HISTORY OUTPUT: H-Output-1
** 
*Output, history, variable=PRESELECT
*End Step
** ----------------------------------------------------------------
** 
** STEP: Step-7
** 
*Step, name=Step-7, nlgeom=NO
*Static, direct
0.25, 1., 
** 
** BOUNDARY CONDITIONS
** 
** Name: BC-3 Type: Displacement/Rotation
*Boundary
_PickedSet30, 1, 1
** 
** OUTPUT REQUESTS
** 
*Restart, write, frequency=0
** 
** FIELD OUTPUT: F-Output-1
** 
*Output, field
*Node Output
CF, RF, U
*Element Output, directions=YES
E, EE, PE, PEEQ, PEMAG, S
*Contact Output
CDISP, CSTRESS
** 
** HISTORY OUTPUT: H-Output-1
** 
*Output, history, variable=PRESELECT
*End Step
** ----------------------------------------------------------------
** 
** STEP: Step-8
** 
*Step, name=Step-8, nlgeom=NO
*Static, direct
0.25, 1., 
** 
** BOUNDARY CONDITIONS
** 
** Name: BC-3 Type: Displacement/Rotation
*Boundary
_PickedSet30, 1, 1, 1.
** 
** OUTPUT REQUESTS
** 
*Restart, write, frequency=0
** 
** FIELD OUTPUT: F-Output-1
** 
*Output, field
*Node Output
CF, RF, U
*Element Output, directions=YES
E, EE, PE, PEEQ, PEMAG, S
*Contact Output
CDISP, CSTRESS
** 
** HISTORY OUTPUT: H-Output-1
** 
*Output, history, variable=PRESELECT
*End Step
** ----------------------------------------------------------------
** 
** STEP: Step-9
** 
*Step, name=Step-9, nlgeom=NO
*Static, direct
0.25, 1., 
** 
** BOUNDARY CONDITIONS
** 
** Name: BC-3 Type: Displacement/Rotation
*Boundary
_PickedSet30, 1, 1, 1.
** Name: BC-4 Type: Displacement/Rotation
*Boundary
_PickedSet31, 2, 2
** 
** OUTPUT REQUESTS
** 
*Restart, write, frequency=0
** 
** FIELD OUTPUT: F-Output-1
** 
*Output, field
*Node Output
CF, RF, U
*Element Output, directions=YES
E, EE, PE, PEEQ, PEMAG, S
*Contact Output
CDISP, CSTRESS
** 
** HISTORY OUTPUT: H-Output-1
** 
*Output, history, variable=PRESELECT
*End Step
** ----------------------------------------------------------------
** 
** STEP: Step-10
** 
*Step, name=Step-10, nlgeom=NO
*Static, direct
0.25, 1., 
** 
** BOUNDARY CONDITIONS
** 
** Name: BC-3 Type: Displacement/Rotation
*Boundary
_PickedSet30, 1, 1
** 
** OUTPUT REQUESTS
** 
*Restart, write, frequency=0
** 
** FIELD OUTPUT: F-Output-1
** 
*Output, field
*Node Output
CF, RF, U
*Element Output, directions=YES
E, EE, PE, PEEQ, PEMAG, S
*Contact Output
CDISP, CSTRESS
** 
** HISTORY OUTPUT: H-Output-1
** 
*Output, history, variable=PRESELECT
*End Step
