*Heading
** Job name: LLF-test Model name: Model-1
** Generated by: Abaqus/CAE 2017
*Preprint, echo=NO, model=NO, history=NO, contact=NO
**
** PARTS
**
*Part, name=Part-3
*Node
      1, -0.672575295,   1.01082289
      2,  -1.01082289,  0.672575295
      3,        -1.25,        0.625
      4,  -1.48917711,  0.672575295
      5,  -1.82742476,   1.01082289
      6,       -1.875,         1.25
      7,  -1.82742476,   1.48917711
      8,  -1.48917711,   1.82742476
      9,        -1.25,        1.875
     10,  -1.01082289,   1.82742476
     11, -0.672575295,   1.48917711
     12,       -0.625,         1.25
     13, -0.172575295,  -1.48917711
     14, -0.510822833,  -1.82742476
     15,        -0.75,       -1.875
     16, -0.989177167,  -1.82742476
     17,  -1.32742476,  -1.48917711
     18,       -1.375,        -1.25
     19,  -1.32742476,  -1.01082289
     20, -0.989177167, -0.672575295
** ... 422 like lines cut
*Element, type=CPE3
  1, 304, 281, 237
  2, 292, 172, 236
  3, 241, 236, 181
  4, 118,   2,   3
  5, 183, 130, 181
  6, 145,  94, 114
  7, 190, 161,  94
  8, 213, 170, 165
  9, 301, 265, 258
 10, 119,  18,  95
 11, 120,   6,  96
 12, 223, 166, 147
 13, 115,  43,  92
 14, 115,  96,   7
 15, 124,  92,   8
 16, 133,  10, 128
 17, 229, 182, 176
 18, 131,  11,  89
 19, 134,  34, 126
 20, 125,  32,  33
** ... 780 like lines cut
*Nset, nset=_PickedSet9, internal, generate
   1,  442,    1
*Elset, elset=_PickedSet9, internal, generate
   1,  800,    1
** Section: Section-1
*Solid Section, elset=_PickedSet9, material=Material-1
,
*End Part
**  
**
** ASSEMBLY
**
*Assembly, name=Assembly
**  
*Instance, name=Part-3-5, part=Part-3
*End Instance
**  
*Nset, nset=BOTTOM, instance=Part-3-5
 37, 38, 53, 54, 55, 56, 57, 58, 59, 60, 61
*Elset, elset=BOTTOM, instance=Part-3-5
  84, 585, 616, 663, 686, 695, 757, 773, 791, 799
*Nset, nset=LEFT, instance=Part-3-5
 38, 40, 80, 81, 82, 83, 84, 85, 86, 87, 88
*Elset, elset=LEFT, instance=Part-3-5
  75, 197, 691, 712, 718, 722, 731, 747, 754, 797
*Nset, nset=RIGHT, instance=Part-3-5
 37, 39, 62, 63, 64, 65, 66, 67, 68, 69, 70
*Elset, elset=RIGHT, instance=Part-3-5
  57,  66, 633, 659, 668, 742, 779, 781, 789, 796
*Nset, nset=TOP, instance=Part-3-5
 39, 40, 71, 72, 73, 74, 75, 76, 77, 78, 79
*Elset, elset=TOP, instance=Part-3-5
  66,  75,  83, 617, 683, 729, 749, 763, 777, 794
*Nset, nset=_PickedSet60, internal, instance=Part-3-5
 38, 40, 80, 81, 82, 83, 84, 85, 86, 87, 88
*Elset, elset=_PickedSet60, internal, instance=Part-3-5
  75, 197, 691, 712, 718, 722, 731, 747, 754, 797
*Nset, nset=_PickedSet61, internal, instance=Part-3-5
 37, 38, 53, 54, 55, 56, 57, 58, 59, 60, 61
*Elset, elset=_PickedSet61, internal, instance=Part-3-5
  84, 585, 616, 663, 686, 695, 757, 773, 791, 799
*Nset, nset=_PickedSet66, internal, instance=Part-3-5
 37, 39, 62, 63, 64, 65, 66, 67, 68, 69, 70
*Elset, elset=_PickedSet66, internal, instance=Part-3-5
  57,  66, 633, 659, 668, 742, 779, 781, 789, 796
*Nset, nset=_PickedSet67, internal, instance=Part-3-5
 39, 40, 71, 72, 73, 74, 75, 76, 77, 78, 79
*Elset, elset=_PickedSet67, internal, instance=Part-3-5
  66,  75,  83, 617, 683, 729, 749, 763, 777, 794
*End Assembly
** 
** MATERIALS
** 
*Material, name=Material-1
*Elastic
80., 0.25
*Plastic
2.,  0.
6., 0.4
8., 0.8
** 
** BOUNDARY CONDITIONS
** 
** Name: BC-1 Type: Displacement/Rotation
*Boundary
_PickedSet60, 1, 1
** Name: BC-2 Type: Displacement/Rotation
*Boundary
_PickedSet61, 2, 2
** ----------------------------------------------------------------
** 
** STEP: Step-1
** 
*Step, name=Step-1, nlgeom=NO
*Static, direct
0.25, 1., 
** 
** BOUNDARY CONDITIONS
** 
** Name: BC-3 Type: Displacement/Rotation
*Boundary
_PickedSet66, 1, 1, 0.5
** Name: BC-4 Type: Displacement/Rotation
*Boundary
_PickedSet67, 2, 2
** 
** OUTPUT REQUESTS
** 
*Restart, write, frequency=0
** 
** FIELD OUTPUT: F-Output-1
** 
*Output, field
*Node Output
CF, RF, U
*Element Output, directions=YES
E, EE, PE, PEEQ, PEMAG, S
*Contact Output
CDISP, CSTRESS
** 
** HISTORY OUTPUT: H-Output-1
** 
*Output, history, variable=PRESELECT
*End Step
** ----------------------------------------------------------------
** 
** STEP: Step-2
** 
*Step, name=Step-2, nlgeom=NO
*Static, direct
0.25, 1., 
** 
** BOUNDARY CONDITIONS
** 
** Name: BC-3 Type: Displacement/Rotation
*Boundary
_PickedSet66, 1, 1, 1.
** Name: BC-4 Type: Displacement/Rotation
*Boundary
_PickedSet67, 2, 2, 0.5
** 
** OUTPUT REQUESTS
** 
*Restart, write, frequency=0
** 
** FIELD OUTPUT: F-Output-1
** 
*Output, field
*Node Output
CF, RF, U
*Element Output, directions=YES
E, EE, PE, PEEQ, PEMAG, S
*Contact Output
CDISP, CSTRESS
** 
** HISTORY OUTPUT: H-Output-1
** 
*Output, history, variable=PRESELECT
*End Step
** ----------------------------------------------------------------
** 
** STEP: Step-3
** 
*Step, name=Step-3, nlgeom=NO
*Static, direct
0.25, 1., 
** 
** BOUNDARY CONDITIONS
** 
** Name: BC-3 Type: Displacement/Rotation
*Boundary
_PickedSet66, 1, 1, 0.5
** 
** OUTPUT REQUESTS
** 
*Restart, write, frequency=0
** 
** FIELD OUTPUT: F-Output-1
** 
*Output, field
*Node Output
CF, RF, U
*Element Output, directions=YES
E, EE, PE, PEEQ, PEMAG, S
*Contact Output
CDISP, CSTRESS
** 
** HISTORY OUTPUT: H-Output-1
** 
*Output, history, variable=PRESELECT
*End Step
** ----------------------------------------------------------------
** 
** STEP: Step-4
** 
*Step, name=Step-4, nlgeom=NO
*Static, direct
0.25, 1., 
** 
** BOUNDARY CONDITIONS
** 
** Name: BC-3 Type: Displacement/Rotation
*Boundary
_PickedSet66, 1, 1
** 
** OUTPUT REQUESTS
** 
*Restart, write, frequency=0
** 
** FIELD OUTPUT: F-Output-1
** 
*Output, field
*Node Output
CF, RF, U
*Element Output, directions=YES
E, EE, PE, PEEQ, PEMAG, S
*Contact Output
CDISP, CSTRESS
** 
** HISTORY OUTPUT: H-Output-1
** 
*Output, history, variable=PRESELECT
*End Step
** ----------------------------------------------------------------
** 
** STEP: Step-5
** 
*Step, name=Step-5, nlgeom=NO
*Static, direct
0.25, 1., 
** 
** BOUNDARY CONDITIONS
** 
** Name: BC-3 Type: Displacement/Rotation
*Boundary
_PickedSet66, 1, 1, -0.5
** Name: BC-4 Type: Displacement/Rotation
*Boundary
_PickedSet67, 2, 2
** 
** OUTPUT REQUESTS
** 
*Restart, write, frequency=0
** 
** FIELD OUTPUT: F-Output-1
** 
*Output, field
*Node Output
CF, RF, U
*Element Output, directions=YES
E, EE, PE, PEEQ, PEMAG, S
*Contact Output
CDISP, CSTRESS
** 
** HISTORY OUTPUT: H-Output-1
** 
*Output, history, variable=PRESELECT
*End Step
** ----------------------------------------------------------------
** 
** STEP: Step-6
** 
*Step, name=Step-6, nlgeom=NO
*Static, direct
0.25, 1., 
** 
** BOUNDARY CONDITIONS
** 
** Name: BC-3 Type: Displacement/Rotation
*Boundary
_PickedSet66, 1, 1, -1.
** Name: BC-4 Type: Displacement/Rotation
*Boundary
_PickedSet67, 2, 2, -0.5
** 
** OUTPUT REQUESTS
** 
*Restart, write, frequency=0
** 
** FIELD OUTPUT: F-Output-1
** 
*Output, field
*Node Output
CF, RF, U
*Element Output, directions=YES
E, EE, PE, PEEQ, PEMAG, S
*Contact Output
CDISP, CSTRESS
** 
** HISTORY OUTPUT: H-Output-1
** 
*Output, history, variable=PRESELECT
*End Step
** ----------------------------------------------------------------
** 
** STEP: Step-7
** 
*Step, name=Step-7, nlgeom=NO
*Static, direct
0.25, 1., 
** 
** BOUNDARY CONDITIONS
** 
** Name: BC-3 Type: Displacement/Rotation
*Boundary
_PickedSet66, 1, 1, -0.5
** 
** OUTPUT REQUESTS
** 
*Restart, write, frequency=0
** 
** FIELD OUTPUT: F-Output-1
** 
*Output, field
*Node Output
CF, RF, U
*Element Output, directions=YES
E, EE, PE, PEEQ, PEMAG, S
*Contact Output
CDISP, CSTRESS
** 
** HISTORY OUTPUT: H-Output-1
** 
*Output, history, variable=PRESELECT
*End Step
** ----------------------------------------------------------------
** 
** STEP: Step-8
** 
*Step, name=Step-8, nlgeom=NO
*Static, direct
0.25, 1., 
** 
** BOUNDARY CONDITIONS
** 
** Name: BC-3 Type: Displacement/Rotation
*Boundary
_PickedSet66, 1, 1
** 
** OUTPUT REQUESTS
** 
*Restart, write, frequency=0
** 
** FIELD OUTPUT: F-Output-1
** 
*Output, field
*Node Output
CF, RF, U
*Element Output, directions=YES
E, EE, PE, PEEQ, PEMAG, S
*Contact Output
CDISP, CSTRESS
** 
** HISTORY OUTPUT: H-Output-1
** 
*Output, history, variable=PRESELECT
*End Step
** ----------------------------------------------------------------
** 
** STEP: Step-9
** 
*Step, name=Step-9, nlgeom=NO
*Static, direct
0.25, 1., 
** 
** BOUNDARY CONDITIONS
** 
** Name: BC-3 Type: Displacement/Rotation
*Boundary
_PickedSet66, 1, 1, 0.5
** Name: BC-4 Type: Displacement/Rotation
*Boundary
_PickedSet67, 2, 2
** 
** OUTPUT REQUESTS
** 
*Restart, write, frequency=0
** 
** FIELD OUTPUT: F-Output-1
** 
*Output, field
*Node Output
CF, RF, U
*Element Output, directions=YES
E, EE, PE, PEEQ, PEMAG, S
*Contact Output
CDISP, CSTRESS
** 
** HISTORY OUTPUT: H-Output-1
** 
*Output, history, variable=PRESELECT
*End Step
