*Heading
** Job name: LLF-test Model name: Model-1
** Generated by: Abaqus/CAE 2017
*Preprint, echo=NO, model=NO, history=NO, contact=NO
**
** PARTS
**
*Part, name=Part-1
*Node
      1,          -5.,          -5.
      2,           5.,          -5.
      3,          -5.,           5.
      4,           5.,           5.
*Element, type=CPE4R
1, 1, 2, 4, 3
*Nset, nset=_PickedSet2, internal, generate
 1,  4,  1
*Elset, elset=_PickedSet2, internal
 1,
** Section: Section-1
*Solid Section, elset=_PickedSet2, material=Material-1
,
*End Part
**  
**
** ASSEMBLY
**
*Assembly, name=Assembly
**  
*Instance, name=Part-1-2, part=Part-1
*End Instance
**  
*Nset, nset=_PickedSet15, internal, instance=Part-1-2
 1, 3
*Elset, elset=_PickedSet15, internal, instance=Part-1-2
 1,
*Nset, nset=_PickedSet16, internal, instance=Part-1-2
 2, 4
*Elset, elset=_PickedSet16, internal, instance=Part-1-2
 1,
*Nset, nset=_PickedSet19, internal, instance=Part-1-2
 1, 2
*Elset, elset=_PickedSet19, internal, instance=Part-1-2
 1,
*End Assembly
** 
** MATERIALS
** 
*Material, name=Material-1
*Elastic
80., 0.25
*Plastic
5.,0.
** 
** BOUNDARY CONDITIONS
** 
** Name: BC-3 Type: Displacement/Rotation
*Boundary
_PickedSet19, 2, 2
** ----------------------------------------------------------------
** 
** STEP: Step-1
** 
*Step, name=Step-1, nlgeom=NO, inc=1000
*Static, direct
0.002, 1., 
** 
** BOUNDARY CONDITIONS
** 
** Name: BC-1 Type: Displacement/Rotation
*Boundary
_PickedSet15, 1, 1
** Name: BC-2 Type: Displacement/Rotation
*Boundary
_PickedSet16, 1, 1, 0.4
** 
** OUTPUT REQUESTS
** 
*Restart, write, frequency=0
** 
** FIELD OUTPUT: F-Output-1
** 
*Output, field
*Element Output, directions=YES
ALPHA, ALPHAN, CS11, CTSHR, E, EE, ER, IE, LE, MISES, MISESMAX, MISESONLY, NE, PE, PEEQ, PEEQMAX
PEEQT, PEMAG, PEQC, PRESSONLY, PS, S, SALPHA, SE, SEE, SEP, SEPE, SPE, SSAVG, THE, TRIAX, TSHR
VE, VEEQ, VS
** 
** HISTORY OUTPUT: H-Output-1
** 
*Output, history, variable=PRESELECT
*End Step
** ----------------------------------------------------------------
** 
** STEP: Step-2
** 
*Step, name=Step-2, nlgeom=NO, inc=1000
*Static, direct
0.002, 1., 
** 
** BOUNDARY CONDITIONS
** 
** Name: BC-2 Type: Displacement/Rotation
*Boundary
_PickedSet16, 1, 1, -0.4
** 
** OUTPUT REQUESTS
** 
*Restart, write, frequency=0
** 
** FIELD OUTPUT: F-Output-1
** 
*Output, field
*Element Output, directions=YES
ALPHA, ALPHAN, CS11, CTSHR, E, EE, ER, IE, LE, MISES, MISESMAX, MISESONLY, NE, PE, PEEQ, PEEQMAX
PEEQT, PEMAG, PEQC, PRESSONLY, PS, S, SALPHA, SE, SEE, SEP, SEPE, SPE, SSAVG, THE, TRIAX, TSHR
VE, VEEQ, VS
** 
** HISTORY OUTPUT: H-Output-1
** 
*Output, history, variable=PRESELECT
*End Step
** ----------------------------------------------------------------
** 
** STEP: Step-3
** 
*Step, name=Step-3, nlgeom=NO, inc=1000
*Static, direct
0.002, 1., 
** 
** BOUNDARY CONDITIONS
** 
** Name: BC-2 Type: Displacement/Rotation
*Boundary
_PickedSet16, 1, 1, 0.8
** 
** OUTPUT REQUESTS
** 
*Restart, write, frequency=0
** 
** FIELD OUTPUT: F-Output-1
** 
*Output, field
*Element Output, directions=YES
ALPHA, ALPHAN, CS11, CTSHR, E, EE, ER, IE, LE, MISES, MISESMAX, MISESONLY, NE, PE, PEEQ, PEEQMAX
PEEQT, PEMAG, PEQC, PRESSONLY, PS, S, SALPHA, SE, SEE, SEP, SEPE, SPE, SSAVG, THE, TRIAX, TSHR
VE, VEEQ, VS
** 
** HISTORY OUTPUT: H-Output-1
** 
*Output, history, variable=PRESELECT
*End Step
** ----------------------------------------------------------------
** 
** STEP: Step-4
** 
*Step, name=Step-4, nlgeom=NO, inc=1000
*Static, direct
0.002, 1., 
** 
** BOUNDARY CONDITIONS
** 
** Name: BC-2 Type: Displacement/Rotation
*Boundary
_PickedSet16, 1, 1, -0.8
** 
** OUTPUT REQUESTS
** 
*Restart, write, frequency=0
** 
** FIELD OUTPUT: F-Output-1
** 
*Output, field
*Element Output, directions=YES
ALPHA, ALPHAN, CS11, CTSHR, E, EE, ER, IE, LE, MISES, MISESMAX, MISESONLY, NE, PE, PEEQ, PEEQMAX
PEEQT, PEMAG, PEQC, PRESSONLY, PS, S, SALPHA, SE, SEE, SEP, SEPE, SPE, SSAVG, THE, TRIAX, TSHR
VE, VEEQ, VS
** 
** HISTORY OUTPUT: H-Output-1
** 
*Output, history, variable=PRESELECT
*End Step
** ----------------------------------------------------------------
** 
** STEP: Step-5
** 
*Step, name=Step-5, nlgeom=NO, inc=1000
*Static, direct
0.002, 1., 
** 
** BOUNDARY CONDITIONS
** 
** Name: BC-2 Type: Displacement/Rotation
*Boundary
_PickedSet16, 1, 1, 1.2
** 
** OUTPUT REQUESTS
** 
*Restart, write, frequency=0
** 
** FIELD OUTPUT: F-Output-1
** 
*Output, field
*Element Output, directions=YES
ALPHA, ALPHAN, CS11, CTSHR, E, EE, ER, IE, LE, MISES, MISESMAX, MISESONLY, NE, PE, PEEQ, PEEQMAX
PEEQT, PEMAG, PEQC, PRESSONLY, PS, S, SALPHA, SE, SEE, SEP, SEPE, SPE, SSAVG, THE, TRIAX, TSHR
VE, VEEQ, VS
** 
** HISTORY OUTPUT: H-Output-1
** 
*Output, history, variable=PRESELECT
*End Step
** ----------------------------------------------------------------
** 
** STEP: Step-6
** 
*Step, name=Step-6, nlgeom=NO, inc=1000
*Static, direct
0.002, 1., 
** 
** BOUNDARY CONDITIONS
** 
** Name: BC-2 Type: Displacement/Rotation
*Boundary
_PickedSet16, 1, 1, -1.2
** 
** OUTPUT REQUESTS
** 
*Restart, write, frequency=0
** 
** FIELD OUTPUT: F-Output-1
** 
*Output, field
*Element Output, directions=YES
ALPHA, ALPHAN, CS11, CTSHR, E, EE, ER, IE, LE, MISES, MISESMAX, MISESONLY, NE, PE, PEEQ, PEEQMAX
PEEQT, PEMAG, PEQC, PRESSONLY, PS, S, SALPHA, SE, SEE, SEP, SEPE, SPE, SSAVG, THE, TRIAX, TSHR
VE, VEEQ, VS
** 
** HISTORY OUTPUT: H-Output-1
** 
*Output, history, variable=PRESELECT
*End Step
** ----------------------------------------------------------------
** 
** STEP: Step-7
** 
*Step, name=Step-7, nlgeom=NO, inc=1000
*Static, direct
0.002, 1., 
** 
** BOUNDARY CONDITIONS
** 
** Name: BC-2 Type: Displacement/Rotation
*Boundary
_PickedSet16, 1, 1, 1.6
** 
** OUTPUT REQUESTS
** 
*Restart, write, frequency=0
** 
** FIELD OUTPUT: F-Output-1
** 
*Output, field
*Element Output, directions=YES
ALPHA, ALPHAN, CS11, CTSHR, E, EE, ER, IE, LE, MISES, MISESMAX, MISESONLY, NE, PE, PEEQ, PEEQMAX
PEEQT, PEMAG, PEQC, PRESSONLY, PS, S, SALPHA, SE, SEE, SEP, SEPE, SPE, SSAVG, THE, TRIAX, TSHR
VE, VEEQ, VS
** 
** HISTORY OUTPUT: H-Output-1
** 
*Output, history, variable=PRESELECT
*End Step
** ----------------------------------------------------------------
** 
** STEP: Step-8
** 
*Step, name=Step-8, nlgeom=NO, inc=1000
*Static, direct
0.002, 1., 
** 
** BOUNDARY CONDITIONS
** 
** Name: BC-2 Type: Displacement/Rotation
*Boundary
_PickedSet16, 1, 1, -1.6
** 
** OUTPUT REQUESTS
** 
*Restart, write, frequency=0
** 
** FIELD OUTPUT: F-Output-1
** 
*Output, field
*Element Output, directions=YES
ALPHA, ALPHAN, CS11, CTSHR, E, EE, ER, IE, LE, MISES, MISESMAX, MISESONLY, NE, PE, PEEQ, PEEQMAX
PEEQT, PEMAG, PEQC, PRESSONLY, PS, S, SALPHA, SE, SEE, SEP, SEPE, SPE, SSAVG, THE, TRIAX, TSHR
VE, VEEQ, VS
** 
** HISTORY OUTPUT: H-Output-1
** 
*Output, history, variable=PRESELECT
*End Step
** ----------------------------------------------------------------
** 
** STEP: Step-9
** 
*Step, name=Step-9, nlgeom=NO, inc=1000
*Static, direct
0.002, 1., 
** 
** BOUNDARY CONDITIONS
** 
** Name: BC-2 Type: Displacement/Rotation
*Boundary
_PickedSet16, 1, 1, 2.
** 
** OUTPUT REQUESTS
** 
*Restart, write, frequency=0
** 
** FIELD OUTPUT: F-Output-1
** 
*Output, field
*Element Output, directions=YES
ALPHA, ALPHAN, CS11, CTSHR, E, EE, ER, IE, LE, MISES, MISESMAX, MISESONLY, NE, PE, PEEQ, PEEQMAX
PEEQT, PEMAG, PEQC, PRESSONLY, PS, S, SALPHA, SE, SEE, SEP, SEPE, SPE, SSAVG, THE, TRIAX, TSHR
VE, VEEQ, VS
** 
** HISTORY OUTPUT: H-Output-1
** 
*Output, history, variable=PRESELECT
*End Step
** ----------------------------------------------------------------
** 
** STEP: Step-10
** 
*Step, name=Step-10, nlgeom=NO, inc=1000
*Static, direct
0.002, 1., 
** 
** BOUNDARY CONDITIONS
** 
** Name: BC-2 Type: Displacement/Rotation
*Boundary
_PickedSet16, 1, 1, -2.
** 
** OUTPUT REQUESTS
** 
*Restart, write, frequency=0
** 
** FIELD OUTPUT: F-Output-1
** 
*Output, field
*Element Output, directions=YES
ALPHA, ALPHAN, CS11, CTSHR, E, EE, ER, IE, LE, MISES, MISESMAX, MISESONLY, NE, PE, PEEQ, PEEQMAX
PEEQT, PEMAG, PEQC, PRESSONLY, PS, S, SALPHA, SE, SEE, SEP, SEPE, SPE, SSAVG, THE, TRIAX, TSHR
VE, VEEQ, VS
** 
** HISTORY OUTPUT: H-Output-1
** 
*Output, history, variable=PRESELECT
*End Step
** ----------------------------------------------------------------
** 
** STEP: Step-11
** 
*Step, name=Step-11, nlgeom=NO, inc=1000
*Static, direct
0.002, 1., 
** 
** BOUNDARY CONDITIONS
** 
** Name: BC-2 Type: Displacement/Rotation
*Boundary
_PickedSet16, 1, 1
** 
** OUTPUT REQUESTS
** 
*Restart, write, frequency=0
** 
** FIELD OUTPUT: F-Output-1
** 
*Output, field
*Element Output, directions=YES
ALPHA, ALPHAN, CS11, CTSHR, E, EE, ER, IE, LE, MISES, MISESMAX, MISESONLY, NE, PE, PEEQ, PEEQMAX
PEEQT, PEMAG, PEQC, PRESSONLY, PS, S, SALPHA, SE, SEE, SEP, SEPE, SPE, SSAVG, THE, TRIAX, TSHR
VE, VEEQ, VS
** 
** HISTORY OUTPUT: H-Output-1
** 
*Output, history, variable=PRESELECT
*End Step
